Circuit: * Z:\home\alowell\pcm3168a_euro1\spice\diff_amp_sim2.asc

WARNING: Less than two connections to node U1:V12.  This node is used by H:U1:_H2:_H2.
WARNING: Less than two connections to node U1:V11.  This node is used by H:U1:_H3:_H3.
Direct Newton iteration for .op point succeeded.

Date: Sun Jun 01 08:04:03 2025
Total elapsed time: 0.096 seconds.

tnom = 27
temp = 27
method = trap
totiter = 5
traniter = 0
tranpoints = 0
accept = 0
rejected = 0
matrix size = 260
fillins = 317
solver = Normal
Matrix Compiler1:    1826 opcodes
Matrix Compiler2: 27.57 KB object code size
